new LineCode.d63c77c3-4c74-486d-b8e7-b7ec3e796b7f NPhases=3 Units=km RMatrix=(1.0 0.0 0.0 |0.0 1.0 0.0 |0.0 0.0 1.0 ) XMatrix=(1.0 0.0 0.0 |0.0 1.0 0.0 |0.0 0.0 1.0 ) CMatrix=(0.0034995625546806654 -0.00010936132983377078 -0.00010936132983377078 |-0.00010936132983377078 0.0034995625546806654 -0.00010936132983377078 |-0.00010936132983377078 -0.00010936132983377078 0.0034995625546806654 ) NormAmps=400.0
