new Line.671692 Switch=True Bus1=671.1.2.3 Bus2=692.1.2.3 LineCode=d63c77c3-4c74-486d-b8e7-b7ec3e796b7f Length=0.001 Phases=3 Units=m Enabled=True
